[General]
network = Railway
sim-time-limit = 1800s

**.vector-recording = false


seed-set = ${repetition}

# output files
output-scalar-file = ${resultdir}/${configname}/itervars=${iterationvars}-repetition=${repetition}.sca
output-vector-file = ${resultdir}/${configname}/itervars=${iterationvars}-repetition=${repetition}.vec

# railway lenght
Railway.rail_length = 10km # in km

# handover interval
**.ap.handover_interval = 0.01s # seconds

# sampling period - determines how often the simulation sends throughput/response time information for vector statistics, higher = less memory usage
*.train.ap.sampling_period = 100000s  # higher than simulation time by default: means no samples will be sent during the simulation, as it's used only for the warmup calibration

# debug
*.train.dbg.debug = true # prints debug values on-screen

# update intervals
*.train.trainUpdateInterval = 0.05s # seconds -> how often the train updates its position
*.train.dbg.update_rate = 0.001s # seconds -> how often the debug module updates the on-screen value

#########################################################################################################
#Deterministic
#########################################################################################################

[Deterministic-Test-Throughput]

sim-time-limit = 1000s

repeat = 1

warmup-period = 0s

**.train.randomness = false # all random variables extraction are turned off; the means are used instead

# number of base stations
*.num_base = 10

# train parameters 
*.train.trainSpeed = 300kmph # in kmph

# passenger parameters
*.train.passenger_count = 10
*.train.passengers[*].packet_size = 100B # bytes
*.train.passengers[*].generation_delay = 1s # seconds 

# access point parameters
*.train.ap.max_data_rate = 35e5 # in bytes/sec
*.train.ap.handover_mean = 0s # seconds

#########################################################################################################
#DEGENERACY
#########################################################################################################

[Degeneracy-Test-Zero-BS]

sim-time-limit = 100s

repeat = 1

warmup-period = 0s

# number of base stations
*.num_base = 0

# train parameters 
*.train.trainSpeed = 300kmph # in kmph

# passenger parameters
*.train.passenger_count = 20
*.train.passengers[*].packet_size = 400B # bytes
*.train.passengers[*].generation_delay = 0.3s # seconds

# access point parameters
*.train.ap.max_data_rate = 35e5 # in bytes/sec
*.train.ap.handover_mean = 0.5s # seconds

#########################################################################################################

[Degeneracy-Test-Zero-Speed]

sim-time-limit = 100s

repeat = 1

warmup-period = 0s

# number of base stations
*.num_base = 10

# train parameters 
*.train.trainSpeed = 0kmph # in kmph

# passenger parameters
*.train.passenger_count = 20
*.train.passengers[*].packet_size = 400B # bytes
*.train.passengers[*].generation_delay = 0.03s # seconds

# access point parameters
*.train.ap.max_data_rate = 35e5 # in bytes/sec
*.train.ap.handover_mean = 0.5s # seconds

#########################################################################################################

[Degeneracy-Test-Zero-Passengers]

sim-time-limit = 100s

repeat = 1

warmup-period = 0s

# number of base stations
*.num_base = 10

# train parameters 
*.train.trainSpeed = 400kmph # in kmph

# passenger parameters
*.train.passenger_count = 0
*.train.passengers[*].packet_size = 400B # bytes
*.train.passengers[*].generation_delay = 0.03s # seconds

# access point parameters
*.train.ap.max_data_rate = 35e5 # in bytes/sec
*.train.ap.handover_mean = 0.3s # seconds

#########################################################################################################

[Degeneracy-Test-Zero-Rate]

sim-time-limit = 100s

repeat = 1

warmup-period = 0s

# number of base stations
*.num_base = 10

# train parameters 
*.train.trainSpeed = 300kmph # in kmph

# passenger parameters
*.train.passenger_count = 20
*.train.passengers[*].packet_size = 400B # bytes
*.train.passengers[*].generation_delay = 0.3s # seconds

# access point parameters
*.train.ap.max_data_rate = 0 # in bytes/sec
*.train.ap.handover_mean = 0.3s # seconds

#########################################################################################################

[Degeneracy-Test-Zero-Handover]

sim-time-limit = 100s

repeat = 1

warmup-period = 0s

# number of base stations
*.num_base = 10

# train parameters 
*.train.trainSpeed = 800kmph # in kmph

# passenger parameters
*.train.passenger_count = 20
*.train.passengers[*].packet_size = 400B # bytes
*.train.passengers[*].generation_delay = 0.03s # seconds

# access point parameters
*.train.ap.max_data_rate = 1e7 # in bytes/sec
*.train.ap.handover_mean = 0s # seconds

#########################################################################################################
#Consistency
#########################################################################################################

[Consistency-Test-Throughput]

sim-time-limit = 500s

repeat = 1

warmup-period = 0s

# number of base stations
*.num_base = 10

# train parameters 
*.train.trainSpeed = 400kmph # in kmph

# passenger parameters
*.train.passenger_count = ${20,40}
*.train.passengers[*].packet_size = 400B # bytes
*.train.passengers[*].generation_delay = ${0.3,0.15}s # seconds

# access point parameters
*.train.ap.max_data_rate = 35e5 # in bytes/sec
*.train.ap.handover_mean = 0.7s # seconds

#########################################################################################################
#Continuity
#########################################################################################################

[Continuity-Test-Throughput]

sim-time-limit = 1000s

repeat = 1

warmup-period = 0s

# number of base stations
*.num_base = 15

# train parameters 
*.train.trainSpeed = 300kmph # in kmph or mps

# passenger parameters
*.train.passenger_count = 20
*.train.passengers[*].packet_size = ${300,325,350}B # bytes
*.train.passengers[*].generation_delay = 0.03s # seconds

# access point parameters
*.train.ap.max_data_rate = 35e5 # in bytes/sec

*.train.ap.handover_mean = 0.5s # seconds

#########################################################################################################
#Warm up Calibration
#########################################################################################################

[Warm-up-Calibration]

sim-time-limit = 1500s

repeat = 15

**.vector-recording = true

warmup-period = 0s

# number of base stations
*.num_base = 16

# train parameters 
*.train.trainSpeed = 300kmph # in kmph

# passenger parameters
*.train.passenger_count = 200
*.train.passengers[*].packet_size = 400B # bytes
*.train.passengers[*].generation_delay = 0.03s # seconds

# access point parameters
*.train.ap.max_data_rate = 35e5 # in bytes/sec
*.train.ap.handover_mean = 0.5s # seconds

# sampling period for throughput and response time
*.train.ap.sampling_period = 0.01s

#########################################################################################################
#Full Factorial
#########################################################################################################

[Full-factorial]

sim-time-limit = 1800s

repeat = 30

warmup-period = 400s

# number of base stations
*.num_base = ${bs=4,7,10,13,16}

# train parameters 
*.train.trainSpeed = 300kmph # in kmph

# passenger parameters
*.train.passenger_count = ${ps=50,100,200,300,400}
*.train.passengers[*].packet_size = 400B # bytes
*.train.passengers[*].generation_delay = 0.03s # seconds

# access point parameters
*.train.ap.max_data_rate = 35e5 # in bytes/sec
*.train.ap.handover_mean = ${hd=0.3,0.7,1.1}s # seconds



#########################################################################################################
#Bell analysis
#########################################################################################################

[Bell-analysis]

sim-time-limit = 800s

repeat = 10

warmup-period = 400s

# number of base stations
*.num_base = ${bs=4, 7, 10, 13, 16, 19, 22, 25, 28, 31, 34, 37, 40, 43, 46, 49, 52, 55, 58, 61, 64, 67, 70, 73, 76, 79, 82, 85, 88, 91, 94, 97, 100, 103, 106, 109, 112}

# train parameters 
*.train.trainSpeed = 300kmph # in kmph

# passenger parameters
*.train.passenger_count = 250
*.train.passengers[*].packet_size = 400B # bytes
*.train.passengers[*].generation_delay = 0.03s # seconds

# access point parameters
*.train.ap.max_data_rate = 35e5 # in bytes/sec
*.train.ap.handover_mean = ${hd=0.3,0.7,1.1}s # seconds
